Circuit: * C:\Users\ASUS\Downloads\police siren.asc

Direct Newton iteration for .op point succeeded.

Date: Thu Aug 26 22:51:49 2021
Total elapsed time: 84.805 seconds.

tnom = 27
temp = 27
method = modified trap
totiter = 20407751
traniter = 20407738
tranpoints = 4964459
accept = 3835977
rejected = 1128482
matrix size = 32
fillins = 0
solver = Normal
Matrix Compiler1: 1.24 KB object code size  0.4/0.2/[0.1]
Matrix Compiler2: 2.04 KB object code size  1.2/0.3/[0.2]

